Circuit: * C:\IMR_Projects\IMR\Arb_Power_Booster\Simulate\Absolute_Value.asc

Direct Newton iteration for .op point succeeded.

Date: Tue May 27 10:05:41 2025
Total elapsed time: 0.139 seconds.

tnom = 27
temp = 27
method = modified trap
totiter = 2402
traniter = 2387
tranpoints = 1098
accept = 1084
rejected = 14
matrix size = 260
fillins = 286
solver = Normal
Thread vector: 8.6/5.1[6] 3.9/1.6[6] 3.7/1.5[6] 1.2/1.6[1]  2592/500
Matrix Compiler1: 29.73 KB object code size  9.3/4.3/[1.4]
Matrix Compiler2: 26.93 KB object code size  4.4/6.6/[0.9]

