Circuit: * C:\IMR_Projects\IMR\Arb_Power_Booster\Simulate\Absolute_Value.asc

Direct Newton iteration for .op point succeeded.

Date: Tue May 27 14:51:59 2025
Total elapsed time: 0.175 seconds.

tnom = 27
temp = 27
method = modified trap
totiter = 2256
traniter = 2242
tranpoints = 1052
accept = 1050
rejected = 2
matrix size = 272
fillins = 306
solver = Normal
Thread vector: 13.8/5.9[6] 4.0/1.5[6] 3.7/1.3[6] 0.8/1.3[1]  2592/500
Matrix Compiler1: 30.42 KB object code size  6.4/3.3/[1.9]
Matrix Compiler2: 28.06 KB object code size  2.5/3.7/[0.8]

