Circuit: * C:\IMR_Projects\IMR\Arb_Power_Booster\Simulate\Absolute_Value.asc

WARNING: Less than two connections to node NC_01.  This node is used by R8.
Direct Newton iteration for .op point succeeded.

Date: Fri Apr 25 17:05:28 2025
Total elapsed time: 0.149 seconds.

tnom = 27
temp = 27
method = modified trap
totiter = 4405
traniter = 4395
tranpoints = 1982
accept = 1703
rejected = 279
matrix size = 261
fillins = 288
solver = Normal
Thread vector: 7.4/5.0[6] 3.0/1.4[5] 2.6/0.9[6] 0.8/19.7[1]  2592/500
Matrix Compiler1: 29.86 KB object code size  6.9/5.0/[2.4]
Matrix Compiler2: 26.99 KB object code size  2.4/3.0/[0.7]

