Circuit: * C:\IMR_Projects\IMR\Arb_Power_Booster\Simulate\Absolute_Value.asc

Direct Newton iteration for .op point succeeded.
Changing Tseed to 2.92969e-010

Date: Tue Apr 08 09:40:04 2025
Total elapsed time: 0.232 seconds.

tnom = 27
temp = 27
method = modified trap
totiter = 8510
traniter = 8500
tranpoints = 2469
accept = 2065
rejected = 403
matrix size = 260
fillins = 286
solver = Normal
Thread vector: 7.2/5.3[6] 3.4/1.3[6] 2.9/1.0[6] 0.8/1.8[1]  2592/500
Matrix Compiler1: 29.73 KB object code size  4.7/3.5/[1.5]
Matrix Compiler2: 26.93 KB object code size  1.8/3.0/[0.7]

