Circuit: * C:\IMR_Projects\IMR\Arb_Power_Booster\Simulate\Add_Back_In_Vbe_Offset.asc

C1: both pins shorted together -- ignoring.
Direct Newton iteration failed to find .op point.  (Use ".option noopiter" to skip.)
Starting Gmin stepping
Increasing initial diagonal Gmin to 100
Gmin = 100
Gmin = 10.7374
Gmin = 1.15292
vernier = 0.5
vernier = 0.666667
Gmin = 0.4029
vernier = 0.888888
vernier = 1
Gmin = 0.06089
Gmin = 0.00653801
Gmin = 0.000702013
vernier = 0.5
vernier = 0.25
vernier = 0.125
Gmin = 0.000410046
vernier = 0.0625
vernier = 0.03125
vernier = 0.015625
vernier = 0.0078125
Gmin = 0.000406074
vernier = 0.00390625
vernier = 0.00195313
vernier = 0.000976563
Gmin = 0.000405678
vernier = 0.00130208
vernier = 0.00173611
Gmin = 0.000404261
vernier = 0.00231481
vernier = 0.00308642
Gmin = 0.000402026
vernier = 0.00411522
Gmin = 0.000398425
vernier = 0.00548696
vernier = 0.00731595
Gmin = 0.000392597
vernier = 0.00975459
vernier = 0.0130061
Gmin = 0.000383539
vernier = 0.0173415
Gmin = 0.000369289
vernier = 0.023122
vernier = 0.0308293
Gmin = 0.000347108
vernier = 0.0411057
vernier = 0.0548076
Gmin = 0.00031471
vernier = 0.0730768
Gmin = 0.000268563
vernier = 0.0974357
vernier = 0.129914
vernier = 0.0649571
Gmin = 0.000224634
vernier = 0.0324786
vernier = 0.0162393
vernier = 0.00811964
Gmin = 0.000225978
vernier = 0.0108262
vernier = 0.0144349
Gmin = 0.000219163
vernier = 0.0192465
vernier = 0.025662
Gmin = 0.000208725
vernier = 0.012831
vernier = 0.00641551
vernier = 0.00320776
vernier = 0.00160388
vernier = 0.000801939
vernier = 0.000400969
Gmin = 0.000204759
Gmin = 0
Gmin stepping failed

Starting source stepping with srcstepmethod=0
Source Step = 3.0303%
vernier = 0.25
Source Step = 0.0177557%
Source Step = 0.0473485%
Source Step = 0.0769413%
Source Step = 0.106534%
Source Step = 0.136127%
vernier = 0.00146484
Source Step = 0.173118%
Source Step = 0.217507%
Source Step = 0.261896%
Source Step = 0.306286%
Source Step = 0.350675%
vernier = 0.00219727
Source Step = 0.403942%
Source Step = 0.470526%
Source Step = 0.537109%
Source Step = 0.603693%
Source Step = 0.670277%
vernier = 0.0032959
Source Step = 0.746848%
Source Step = 0.846724%
Source Step = 0.9466%
Source Step = 1.04648%
Source Step = 1.14635%
vernier = 0.00494385
Source Step = 1.25621%
Source Step = 1.40603%
Source Step = 1.55584%
Source Step = 1.70566%
Source Step = 1.85547%
vernier = 0.00741577
Source Step = 2.01277%
Source Step = 2.23749%
Source Step = 2.46221%
Source Step = 2.68693%
Source Step = 2.91165%
Source Step = 3.13637%
vernier = 0.0111237
Source Step = 3.47346%
Source Step = 3.81054%
Source Step = 4.14762%
Source Step = 4.4847%
Source Step = 4.82178%
vernier = 0.0166855
Source Step = 5.31054%
Source Step = 5.81616%
Source Step = 6.32179%
Source Step = 6.82741%
Source Step = 7.33303%
vernier = 0.0250282
Source Step = 8.0409%
Source Step = 8.79933%
Source Step = 9.55776%
Source Step = 10.3162%
Source Step = 11.0746%
vernier = 0.0375423
Source Step = 12.0985%
Source Step = 13.2361%
Source Step = 14.3738%
Source Step = 15.5114%
Source Step = 16.6491%
vernier = 0.0563135
Source Step = 18.128%
Source Step = 19.8345%
Source Step = 21.541%
Source Step = 23.2474%
Source Step = 24.9539%
vernier = 0.0844703
Source Step = 27.087%
Source Step = 29.6467%
Source Step = 32.2064%
Source Step = 34.7661%
Source Step = 37.3258%
vernier = 0.126705
Source Step = 40.3975%
Source Step = 44.237%
Source Step = 48.0766%
Source Step = 50.0084%
Source Step = 50.0684%
Source Step = 50.1283%
Source Step = 50.1883%
Source Step = 50.2483%
Source Step = 50.3083%
vernier = 0.00296966
Source Step = 50.3863%
Source Step = 50.4763%
Source Step = 50.5663%
Source Step = 50.6563%
Source Step = 50.7463%
vernier = 0.00445449
Source Step = 50.8588%
Source Step = 50.9937%
Source Step = 51.1287%
Source Step = 51.2637%
Source Step = 51.3987%
vernier = 0.00668173
Source Step = 51.5607%
Source Step = 51.7632%
Source Step = 51.9656%
Source Step = 52.1681%
Source Step = 52.3706%
vernier = 0.0100226
Source Step = 52.6034%
Source Step = 52.9072%
Source Step = 53.2109%
Source Step = 53.5146%
Source Step = 53.8183%
vernier = 0.0150339
Source Step = 54.1524%
Source Step = 54.608%
Source Step = 55.0635%
Source Step = 55.5191%
Source Step = 55.9747%
vernier = 0.0225508
Source Step = 56.453%
Source Step = 57.1364%
Source Step = 57.8197%
Source Step = 58.5031%
Source Step = 59.1865%
Source Step = 59.8698%
vernier = 0.0338263
Source Step = 60.8949%
Source Step = 61.9199%
Source Step = 62.9449%
Source Step = 63.97%
Source Step = 64.995%
vernier = 0.0507394
Source Step = 66.4813%
Source Step = 68.0189%
Source Step = 69.5564%
Source Step = 71.094%
Source Step = 72.6315%
vernier = 0.0761091
Source Step = 74.7841%
Source Step = 77.0905%
Source Step = 79.3968%
Source Step = 81.7031%
Source Step = 84.0095%
vernier = 0.114164
Source Step = 87.123%
Source Step = 90.5825%
Source Step = 94.042%
Source Step = 97.5015%
Source Step = 100%
vernier = 0.171245
Source stepping succeeded in finding the operating point.


Date: Sun Mar 02 09:05:47 2025
Total elapsed time: 2.198 seconds.

tnom = 27
temp = 27
method = modified trap
totiter = 39283
traniter = 30801
tranpoints = 7650
accept = 5887
rejected = 1763
matrix size = 275
fillins = 412
solver = Normal
Thread vector: 10.8/5.9[6] 3.0/1.5[6] 2.8/1.6[6] 1.1/1.6[1]  2592/500
Matrix Compiler1: 38.32 KB object code size  5.7/2.5/[1.2]
Matrix Compiler2: 30.50 KB object code size  2.5/3.9/[1.1]

