Circuit: * C:\IMR_Projects\IMR\Arb_Power_Booster\Simulate\Add_Back_In_Vbe_Offset.asc

C1: both pins shorted together -- ignoring.
Direct Newton iteration failed to find .op point.  (Use ".option noopiter" to skip.)
Starting Gmin stepping
Increasing initial diagonal Gmin to 100
Gmin = 100
Gmin = 10.7374
Gmin = 1.15292
vernier = 0.5
vernier = 0.666667
Gmin = 0.4029
vernier = 0.888888
vernier = 1
Gmin = 0.06089
Gmin = 0.00653801
Gmin = 0.000702013
vernier = 0.5
vernier = 0.25
vernier = 0.125
Gmin = 0.000410046
vernier = 0.0625
vernier = 0.03125
vernier = 0.015625
vernier = 0.0078125
Gmin = 0.000406074
vernier = 0.00390625
vernier = 0.00520833
Gmin = 0.000402523
vernier = 0.00694444
vernier = 0.00925925
Gmin = 0.000395887
vernier = 0.0123457
Gmin = 0.000385353
vernier = 0.0164609
vernier = 0.0219478
Gmin = 0.000368714
vernier = 0.0292638
vernier = 0.0390184
Gmin = 0.000343835
vernier = 0.0520245
Gmin = 0.000307051
vernier = 0.0693659
vernier = 0.0924879
Gmin = 0.000255279
vernier = 0.123317
vernier = 0.0616586
vernier = 0.0308293
Gmin = 0.000220911
vernier = 0.0411057
Gmin = 0.000201996
vernier = 0.0548076
vernier = 0.0730768
Gmin = 0.000174523
vernier = 0.0974357
vernier = 0.129914
Gmin = 0.000138571
vernier = 0.173219
Gmin = 9.55456e-005
vernier = 0.230959
vernier = 0.307945
Gmin = 5.23476e-005
vernier = 0.410593
vernier = 0.547457
Gmin = 2.05086e-005
vernier = 0.729942
Gmin = 4.67104e-006
vernier = 0.973256
vernier = 0.486628
vernier = 0.243314
vernier = 0.121657
Gmin = 1.32958e-006
vernier = 0.0608285
vernier = 0.0811047
Gmin = 1.13781e-006
vernier = 0.0405523
vernier = 0.0202762
vernier = 0.0101381
vernier = 0.00506904
vernier = 0.00253452
vernier = 0.00126726
vernier = 0.00063363
vernier = 0.000475223
Gmin = 1.13781e-006
Gmin = 0
Gmin stepping failed

Starting source stepping with srcstepmethod=0
Source Step = 3.0303%
vernier = 0.25
Source Step = 0.0177557%
Source Step = 0.0473485%
Source Step = 0.0769413%
Source Step = 0.106534%
Source Step = 0.136127%
vernier = 0.00146484
Source Step = 0.173118%
Source Step = 0.217507%
Source Step = 0.261896%
Source Step = 0.306286%
Source Step = 0.350675%
vernier = 0.00219727
Source Step = 0.403942%
Source Step = 0.470526%
Source Step = 0.537109%
Source Step = 0.603693%
Source Step = 0.670277%
vernier = 0.0032959
Source Step = 0.746848%
Source Step = 0.846724%
Source Step = 0.9466%
Source Step = 1.04648%
Source Step = 1.14635%
vernier = 0.00494385
Source Step = 1.25621%
Source Step = 1.40603%
Source Step = 1.55584%
Source Step = 1.70566%
Source Step = 1.85547%
vernier = 0.00741577
Source Step = 2.01277%
Source Step = 2.23749%
Source Step = 2.46221%
Source Step = 2.68693%
Source Step = 2.91165%
Source Step = 3.13637%
vernier = 0.0111237
Source Step = 3.47346%
Source Step = 3.81054%
Source Step = 4.14762%
Source Step = 4.4847%
Source Step = 4.82178%
vernier = 0.0166855
Source Step = 5.31054%
Source Step = 5.81616%
Source Step = 6.32179%
Source Step = 6.82741%
Source Step = 7.33303%
vernier = 0.0250282
Source Step = 8.0409%
Source Step = 8.79933%
Source Step = 9.55776%
Source Step = 10.3162%
Source Step = 11.0746%
vernier = 0.0375423
Source Step = 12.0985%
Source Step = 13.2361%
Source Step = 14.3738%
Source Step = 15.5114%
Source Step = 16.6491%
vernier = 0.0563135
Source Step = 18.128%
Source Step = 19.8345%
Source Step = 21.541%
Source Step = 23.2474%
Source Step = 24.9539%
vernier = 0.0844703
Source Step = 27.087%
Source Step = 29.6467%
Source Step = 32.2064%
Source Step = 34.7661%
Source Step = 37.3258%
vernier = 0.126705
Source Step = 40.3975%
Source Step = 44.237%
Source Step = 48.0766%
Source Step = 50.0983%
Starting source stepping with srcstepmethod=1
Source Step = 3.0303%
Source Step = 33.3333%
Source Step = 63.6364%
Source Step = 93.9394%
Source Step = 100%
Source Step = 100%
Source Step = 100%
Source Step = 100%
Source stepping succeeded in finding the operating point.


Date: Fri Mar 21 07:42:49 2025
Total elapsed time: 1.860 seconds.

tnom = 27
temp = 27
method = modified trap
totiter = 21119
traniter = 12727
tranpoints = 3381
accept = 2700
rejected = 681
matrix size = 275
fillins = 455
solver = Normal
Thread vector: 13.7/5.3[6] 3.7/1.5[6] 3.3/1.8[6] 1.0/1.7[1]  2592/500
Matrix Compiler1: 42.42 KB object code size  8.2/3.5/[1.7]
Matrix Compiler2: 31.30 KB object code size  2.8/4.0/[0.9]

