Circuit: * C:\IMR_Projects\IMR\Arb_Power_Booster\Simulate\Current Amplifier-1_REV_5.asc

WARNING: Less than two connections to node NC_01.  This node is used by V4.
Direct Newton iteration failed to find .op point.  (Use ".option noopiter" to skip.)
Starting Gmin stepping
Gmin = 10
Gmin = 1.07374
Gmin = 0.115292
Gmin = 0.0123794
Gmin = 0.00132923
Gmin = 0.000142725
Gmin = 1.5325e-005
Gmin = 1.6455e-006
Gmin = 1.76685e-007
Gmin = 1.89714e-008
Gmin = 2.03704e-009
Gmin = 2.18725e-010
Gmin = 2.34854e-011
Gmin = 2.52173e-012
Gmin = 2.70769e-013
Gmin = 0
Gmin stepping succeeded in finding the operating point.


Date: Wed Feb 05 13:06:12 2025
Total elapsed time: 0.206 seconds.

tnom = 27
temp = 27
method = modified trap
totiter = 6005
traniter = 5587
tranpoints = 1888
accept = 1523
rejected = 365
matrix size = 129
fillins = 154
solver = Normal
Thread vector: 7.0/4.6[3] 3.1/2.0[3] 1.1/2.0[1] 0.4/0.9[1]  2592/500
Matrix Compiler1: 20.17 KB object code size  2.6/1.3/[0.6]
Matrix Compiler2: 15.59 KB object code size  1.1/1.7/[0.5]

