Missing ".ends" statement in file "BZT52C2V0S.MOD"
Missing ".ends" statement in file "MMSZ5239BS.MOD"
Circuit: * C:\IMR_Projects\IMR\Arb_Power_Booster\Simulate\Current_Inrush_Limiter.asc

WARNING: Node NC_05 is floating.
WARNING: Node NC_04 is floating.

WARNING: Less than two connections to node NC_01.  This node is used by R1.
WARNING: Less than two connections to node NC_02.  This node is used by R4.
WARNING: Less than two connections to node NC_05.  This node is used by R:U5:S.
WARNING: Less than two connections to node NC_04.  This node is used by R:U5:G.
Instance "m:u8:1": Width narrower than recommended for a level 3 MOSFET.
Instance "m:u5:1": Width narrower than recommended for a level 3 MOSFET.
Instance "m:u4:1": Width narrower than recommended for a level 3 MOSFET.
Instance "m:u2:1": Width narrower than recommended for a level 3 MOSFET.
Direct Newton iteration failed to find .op point.  (Use ".option noopiter" to skip.)
Starting Gmin stepping
Increasing initial diagonal Gmin to 100
Gmin = 100
Gmin = 10.7374
Gmin = 1.15292
vernier = 0.5
vernier = 0.666667
Gmin = 0.4029
vernier = 0.888888
vernier = 1
Gmin = 0.06089
Gmin = 0.00653801
Gmin = 0.000702013
vernier = 0.5
vernier = 0.25
vernier = 0.125
vernier = 0.0625
Gmin = 0.000587305
vernier = 0.03125
vernier = 0.015625
Gmin = 0.000567107
vernier = 0.0208333
vernier = 0.0277778
Gmin = 0.000534695
vernier = 0.037037
vernier = 0.0493827
Gmin = 0.000486879
vernier = 0.0658435
Gmin = 0.000420302
vernier = 0.0877914
vernier = 0.117055
vernier = 0.0585276
Gmin = 0.000348286
vernier = 0.0292638
vernier = 0.0146319
vernier = 0.00731595
Gmin = 0.000338909
vernier = 0.00365797
vernier = 0.00182899
vernier = 0.000914493
vernier = 0.000457247
Gmin = 0
Gmin stepping failed

Starting source stepping with srcstepmethod=0
Source Step = 3.0303%
vernier = 0.25
Source Step = 7.57576%
Source Step = 15.1515%
Source Step = 22.7273%
Source Step = 30.303%
Source Step = 37.8788%
vernier = 0.375
Source Step = 48.8636%
Source Step = 60.2273%
Source Step = 71.5909%
Source Step = 76.7045%
Source Step = 78.1339%
Starting source stepping with srcstepmethod=1
Source Step = 3.0303%
Source stepping failed

Pseudo Transient succeeded in finding the operating point at 268.447 ms.

Date: Sun Mar 16 09:25:40 2025
Total elapsed time: 1.429 seconds.

tnom = 27
temp = 27
method = modified trap
totiter = 19955
traniter = 2644
tranpoints = 1271
accept = 1211
rejected = 355
matrix size = 199
fillins = 236
solver = Normal
Thread vector: 10.1/6.8[4] 3.5/1.9[4] 4.3/1.1[4] 1.0/1.5[1]  2592/500
Matrix Compiler1: 23.96 KB object code size  3.5/1.6/[0.7]
Matrix Compiler2: 20.46 KB object code size  1.9/3.1/[0.9]

