Circuit: * C:\IMR_Projects\IMR\Arb_Power_Booster\Simulate\Current Amp-IC-Form-Single.asc

WARNING: Node NC_02 is floating.

WARNING: Less than two connections to node NC_02.  This node is used by C1.
WARNING: Less than two connections to node VIN.  This node is used by V3.
Early termination of direct N-R iteration.
Direct Newton iteration failed to find .op point.  (Use ".option noopiter" to skip.)
Starting Gmin stepping
Gmin = 10
Gmin = 1.07374
Gmin = 0.115292
Gmin = 0.0123794
Gmin = 0.00132923
Gmin = 0.000142725
Gmin = 1.5325e-005
vernier = 0.5
vernier = 0.666667
Gmin = 5.73799e-006
vernier = 0.888888
vernier = 1
Gmin = 8.09366e-007
Gmin = 8.6905e-008
Gmin = 9.33136e-009
Gmin = 1.00195e-009
Gmin = 1.07583e-010
Gmin = 1.15517e-011
Gmin = 1.24035e-012
Gmin = 1.33182e-013
Gmin = 0
Gmin stepping succeeded in finding the operating point.


Date: Mon May 05 08:48:16 2025
Total elapsed time: 0.141 seconds.

tnom = 27
temp = 27
method = modified trap
totiter = 2916
traniter = 2092
tranpoints = 1047
accept = 1047
rejected = 0
matrix size = 111
fillins = 294
solver = Normal
Thread vector: 2.9/3.3[1] 2.0/1.5[2] 0.9/0.8[2] 0.3/0.9[1]  2592/500
Matrix Compiler1: 29.99 KB object code size  3.5/1.6/[1.1]
Matrix Compiler2: 14.57 KB object code size  1.3/1.3/[0.4]

