Circuit: * C:\IMR_Projects\IMR\Arb_Power_Booster\Simulate\Current Amplifier-1_REV_21.asc

WARNING: Less than two connections to node NC_01.  This node is used by V4.
Direct Newton iteration for .op point succeeded.

Date: Wed Mar 26 14:17:16 2025
Total elapsed time: 0.530 seconds.

tnom = 27
temp = 27
method = modified trap
totiter = 21048
traniter = 21035
tranpoints = 6588
accept = 5092
rejected = 1496
matrix size = 205
fillins = 215
solver = Normal
Thread vector: 8.9/7.0[3] 2.6/1.6[3] 2.0/1.1[3] 0.8/1.3[1]  2592/500
Matrix Compiler1: 25.82 KB object code size  3.9/2.3/[0.9]
Matrix Compiler2: 22.04 KB object code size  2.4/1.9/[0.6]

