Circuit: * C:\IMR_Projects\IMR\Arb_Power_Booster\Simulate\Current Amplifier-1_REV_22.asc

WARNING: Less than two connections to node NC_01.  This node is used by V6.
Direct Newton iteration failed to find .op point.  (Use ".option noopiter" to skip.)
Starting Gmin stepping
Increasing initial diagonal Gmin to 100
Gmin = 100
Gmin = 10.7374
Gmin = 1.15292
vernier = 0.5
vernier = 0.666667
Gmin = 0.4029
vernier = 0.888888
vernier = 1
Gmin = 0.06089
Gmin = 0.00653801
vernier = 0.5
vernier = 0.25
Gmin = 0.00201635
vernier = 0.125
vernier = 0.0625
vernier = 0.03125
vernier = 0.015625
vernier = 0.0078125
Gmin = 0.00212577
vernier = 0.00390625
vernier = 0.00195313
Gmin = 0.00211645
vernier = 0.00260417
vernier = 0.00347222
Gmin = 0.0021009
vernier = 0.00462963
vernier = 0.00617283
Gmin = 0.00207634
vernier = 0.00823044
Gmin = 0.00203828
vernier = 0.0109739
vernier = 0.0146319
Gmin = 0.00197597
vernier = 0.0195092
vernier = 0.0260122
Gmin = 0.00188062
vernier = 0.034683
Gmin = 0.00173998
vernier = 0.046244
vernier = 0.0616586
Gmin = 0.00152763
vernier = 0.0822114
vernier = 0.109615
Gmin = 0.00124233
vernier = 0.146154
Gmin = 0.000898998
vernier = 0.194871
vernier = 0.0974357
vernier = 0.0487178
vernier = 0.0243589
Gmin = 0.000774722
vernier = 0.0121795
vernier = 0.0162393
Gmin = 0.000753816
vernier = 0.0216524
vernier = 0.0288698
Gmin = 0.000715807
vernier = 0.0384931
Gmin = 0.000658238
vernier = 0.0513241
vernier = 0.0684321
Gmin = 0.000573985
vernier = 0.0912428
vernier = 0.0456214
vernier = 0.0228107
vernier = 0.0114053
Gmin = 0.000543955
vernier = 0.00570267
vernier = 0.00285134
vernier = 0.00142567
Gmin = 0.000542407
vernier = 0.000712834
vernier = 0.000534626
vernier = 0.000712834
Gmin = 0.000542045
vernier = 0.000950445
Gmin = 0.000540887
vernier = 0.00126726
vernier = 0.00168968
Gmin = 0.000538948
vernier = 0.00225291
vernier = 0.00300387
Gmin = 0.000535872
vernier = 0.00400516
Gmin = 0.000531067
vernier = 0.00534022
vernier = 0.00712029
Gmin = 0.000523098
vernier = 0.00949371
vernier = 0.0126583
Gmin = 0.000510642
vernier = 0.0168777
Gmin = 0.00049165
vernier = 0.0225036
vernier = 0.0300048
Gmin = 0.000461376
vernier = 0.0400064
vernier = 0.0533418
Gmin = 0.00041699
vernier = 0.0711224
Gmin = 0.000355785
vernier = 0.0948299
vernier = 0.12644
Gmin = 0.000272942
vernier = 0.168586
vernier = 0.224782
Gmin = 0.000179464
vernier = 0.299709
Gmin = 9.34816e-005
vernier = 0.399612
vernier = 0.532816
Gmin = 3.2016e-005
vernier = 0.710421
vernier = 0.947227
Gmin = 6.11153e-006
vernier = 1
vernier = 0.5
vernier = 0.25
Gmin = 1.33725e-006
vernier = 0.125
vernier = 0.0625
vernier = 0.03125
vernier = 0.0416667
Gmin = 1.25983e-006
vernier = 0.0555555
vernier = 0.0277778
vernier = 0.0138889
Gmin = 1.15968e-006
vernier = 0.00694444
vernier = 0.00347222
vernier = 0.00173611
vernier = 0.000868055
vernier = 0.000434028
Gmin = 0
Gmin stepping failed

Starting source stepping with srcstepmethod=0
Source Step = 3.0303%
Source Step = 3.36174%
Source Step = 3.83523%
Source Step = 4.30871%
Source Step = 4.7822%
Source Step = 5.25568%
vernier = 0.0234375
Source Step = 5.87121%
Source Step = 6.58144%
Source Step = 7.29167%
Source Step = 8.00189%
Source Step = 8.71212%
vernier = 0.0351563
Source Step = 9.59991%
Source Step = 10.6652%
Source Step = 11.7306%
Source Step = 12.7959%
Source Step = 13.8613%
vernier = 0.0527344
Source Step = 15.1397%
Source Step = 16.7377%
Source Step = 18.3357%
Source Step = 19.9337%
Source Step = 21.5317%
vernier = 0.0791016
Source Step = 23.3694%
Source Step = 25.7665%
Source Step = 28.1635%
Source Step = 30.5605%
Source Step = 32.9575%
vernier = 0.118652
Source Step = 35.5942%
Source Step = 39.1897%
Source Step = 42.7853%
Source Step = 46.3808%
Source Step = 49.9763%
vernier = 0.177979
Source Step = 53.7516%
Source Step = 59.1449%
Source Step = 64.5382%
Source Step = 69.9315%
Source Step = 75.3248%
Source Step = 80.7181%
vernier = 0.266968
Source Step = 84.7662%
Source Step = 84.7978%
Source Step = 84.8294%
Source Step = 84.861%
Source Step = 84.8926%
Source Step = 84.9242%
vernier = 0.00156426
Source Step = 84.9669%
Source Step = 85.0143%
Source Step = 85.0617%
Source Step = 85.1091%
Source Step = 85.1565%
vernier = 0.0023464
Source Step = 85.2181%
Source Step = 85.2892%
Source Step = 85.3603%
Source Step = 85.4314%
Source Step = 85.5025%
vernier = 0.00351959
Source Step = 85.5914%
Source Step = 85.698%
Source Step = 85.8047%
Source Step = 85.9113%
Source Step = 86.018%
vernier = 0.00527939
Source Step = 86.146%
Source Step = 86.306%
Source Step = 86.466%
Source Step = 86.6259%
Source Step = 86.7859%
vernier = 0.00791909
Source Step = 86.9699%
Source Step = 87.2099%
Source Step = 87.4498%
Source Step = 87.6898%
Starting source stepping with srcstepmethod=1
Source Step = 3.0303%
vernier = 0.25
Source Step = 0.378788%
Source Step = 0.852273%
Source Step = 1.32576%
Source Step = 1.79924%
Source Step = 2.27273%
vernier = 0.0234375
Source Step = 2.91193%
Source Step = 3.62216%
Source Step = 4.33239%
Source Step = 5.04261%
Source Step = 5.75284%
vernier = 0.0351563
Source Step = 6.67614%
Source Step = 7.74148%
Source Step = 8.80682%
Source stepping failed

Pseudo Transient succeeded in finding the operating point at 1.4024 s.
Heightened Def Con from 5.95093e-010 to 1.59509e-009
Heightened Def Con from 0.000570384 ++to 0.000570384
Heightened Def Con from 0.000570384 to 0.000570386
Heightened Def Con from 0.000574765 ++++++++++++++++++++++++++++++to 0.000574765
Heightened Def Con from 0.000580165 to 0.000580168
Heightened Def Con from 0.00058017 to 0.000580176
Heightened Def Con from 0.000659343 +++++to 0.000659343
Heightened Def Con from 0.000659343 to 0.000659345
Heightened Def Con from 0.000659447 to 0.00065945
Heightened Def Con from 0.000768885 ++to 0.000768885
Heightened Def Con from 0.000768885 to 0.000768887
Heightened Def Con from 0.000770601 +++++++++++++++++++++++++to 0.000770601
Heightened Def Con from 0.000770601 to 0.000770603
Heightened Def Con from 0.000770712 +to 0.000770712
Heightened Def Con from 0.000775185 ++++++++++++++++++++++++++++++to 0.000775186
Heightened Def Con from 0.000780355 to 0.000780356
Heightened Def Con from 0.000780358 to 0.000780361
Heightened Def Con from 0.000856961 to 0.000856962
Heightened Def Con from 0.000859415 +to 0.000859415
Heightened Def Con from 0.000970546 +to 0.000970547
Heightened Def Con from 0.000975447 ++++++++++++++++++++++++++++++to 0.000975447
Heightened Def Con from 0.000980355 to 0.000980356
Heightened Def Con from 0.000980356 to 0.000980356
Heightened Def Con from 0.000980358 to 0.000980361
Heightened Def Con from 0.000980362 to 0.000980368
Heightened Def Con from 0.00105593 to 0.00105593
Heightened Def Con from 0.00105925 +++++++++++++++++++++++++++to 0.00105925
Heightened Def Con from 0.00106557 to 0.00106558
Heightened Def Con from 0.00116943 ++++++++++++++++++++++++++++++to 0.00116944
Heightened Def Con from 0.00117118 to 0.00117118
Heightened Def Con from 0.0011805 to 0.0011805
Heightened Def Con from 0.0012594 +++++++++to 0.00125941
Heightened Def Con from 0.00136895 +to 0.00136895
Heightened Def Con from 0.00137065 +to 0.00137065
Heightened Def Con from 0.00137065 to 0.00137065
Heightened Def Con from 0.00137523 ++++++++++++++++++++++++++++++to 0.00137523
Heightened Def Con from 0.00145825 ++++++++++++++++++++++++++++++to 0.00145825
Heightened Def Con from 0.0014591 ++++++++++++++++to 0.0014591
Heightened Def Con from 0.0014591 to 0.0014591
Heightened Def Con from 0.00146371 to 0.00146371
Heightened Def Con from 0.00156889 +++++++++++++++++++++++++++++++++to 0.0015689
Heightened Def Con from 0.00157271 ++++++++++++++++++++++++++to 0.00157271
Heightened Def Con from 0.00165941 +++++++++++++++++++++++++to 0.00165941
Heightened Def Con from 0.00166572 to 0.00166572
Heightened Def Con from 0.00176758 to 0.00176758
Heightened Def Con from 0.00177061 ++++++++++++++++++++++++to 0.00177061
Heightened Def Con from 0.00177061 to 0.00177061
Heightened Def Con from 0.00177072 to 0.00177072
Heightened Def Con from 0.00177544 ++++++++++++++++++++++++++++++to 0.00177544
Heightened Def Con from 0.00178036 to 0.00178036
Heightened Def Con from 0.00178036 to 0.00178036
Heightened Def Con from 0.00178036 to 0.00178036
Heightened Def Con from 0.00185802 +++++++++++++++++++++++++++++++to 0.00185802
Heightened Def Con from 0.00185914 +++++++++++++to 0.00185914
Heightened Def Con from 0.00185914 to 0.00185914
Heightened Def Con from 0.00185923 to 0.00185924
Heightened Def Con from 0.00197059 ++to 0.00197059
Heightened Def Con from 0.00197059 to 0.00197059
Heightened Def Con from 0.0019707 to 0.0019707
Heightened Def Con from 0.0019707 to 0.0019707
Heightened Def Con from 0.00197074 to 0.00197074
Heightened Def Con from 0.00197525 ++++++++++++++++++++++++++++++to 0.00197525
Heightened Def Con from 0.0020592 ++++++++++++++++++++++++++++to 0.0020592
Heightened Def Con from 0.00206569 to 0.00206569
Heightened Def Con from 0.00216891 to 0.00216891
Heightened Def Con from 0.00217061 ++to 0.00217061
Heightened Def Con from 0.00217073 to 0.00217073
Heightened Def Con from 0.00217527 ++++++++++++++++++++++++++++++to 0.00217527
Heightened Def Con from 0.00218036 to 0.00218036
Heightened Def Con from 0.00225919 ++++++++++++++++++++++++++++++to 0.0022592
Heightened Def Con from 0.0022595 ++++++++++++++++++++++++++to 0.0022595
Heightened Def Con from 0.002264 to 0.002264
Heightened Def Con from 0.00237064 +++++++++++++++++++++to 0.00237064
Heightened Def Con from 0.00237544 ++++++++++++++++++++++++++++++to 0.00237544
Heightened Def Con from 0.00238036 to 0.00238036
Heightened Def Con from 0.00245934 +to 0.00245934
Heightened Def Con from 0.00245934 to 0.00245934
Heightened Def Con from 0.00246572 to 0.00246572
Heightened Def Con from 0.00246572 to 0.00246572

Date: Sat Apr 05 12:21:27 2025
Total elapsed time: 7.685 seconds.

tnom = 27
temp = 27
method = modified trap
totiter = 188738
traniter = 172844
tranpoints = 29947
accept = 17446
rejected = 13312
matrix size = 333
fillins = 788
solver = Normal
Thread vector: 21.2/7.1[6] 5.4/2.0[6] 4.1/2.0[6] 1.5/2.1[1]  2592/500
Matrix Compiler1: 79.71 KB object code size  12.9/6.1/[2.9]
Matrix Compiler2: 42.60 KB object code size  4.1/4.5/[1.6]

