Circuit: * C:\IMR_Projects\IMR\Arb_Power_Booster\Simulate\Current Amplifier-1_REV_22.asc

WARNING: Less than two connections to node NC_01.  This node is used by V6.
Direct Newton iteration failed to find .op point.  (Use ".option noopiter" to skip.)
Starting Gmin stepping
Increasing initial diagonal Gmin to 100
Gmin = 100
Gmin = 10.7374
Gmin = 1.15292
vernier = 0.5
vernier = 0.666667
Gmin = 0.4029
vernier = 0.888888
vernier = 1
Gmin = 0.06089
Gmin = 0.00653801
vernier = 0.5
vernier = 0.25
Gmin = 0.00201635
vernier = 0.125
vernier = 0.0625
vernier = 0.03125
vernier = 0.015625
vernier = 0.0078125
Gmin = 0.00212577
vernier = 0.00390625
vernier = 0.00520833
Gmin = 0.00210581
vernier = 0.00694444
Gmin = 0.00207319
vernier = 0.00925925
vernier = 0.0123457
Gmin = 0.00201957
vernier = 0.0164609
vernier = 0.0219478
Gmin = 0.001937
vernier = 0.0292638
Gmin = 0.00181396
vernier = 0.0390184
vernier = 0.0520245
Gmin = 0.00162512
vernier = 0.0693659
vernier = 0.0924879
Gmin = 0.0013646
vernier = 0.123317
Gmin = 0.00103795
vernier = 0.164423
vernier = 0.21923
Gmin = 0.000658437
vernier = 0.292307
vernier = 0.146154
vernier = 0.0730768
vernier = 0.0365384
Gmin = 0.000546497
vernier = 0.0182692
vernier = 0.0091346
vernier = 0.0045673
vernier = 0.00228365
Gmin = 0.000542773
vernier = 0.00114182
vernier = 0.000570912
vernier = 0.000428184
Gmin = 0
Gmin stepping failed

Starting source stepping with srcstepmethod=0
Source Step = 3.0303%
Source Step = 3.36174%
Source Step = 3.83523%
Source Step = 4.30871%
Source Step = 4.7822%
Source Step = 5.25568%
vernier = 0.0234375
Source Step = 5.87121%
Source Step = 6.58144%
Source Step = 7.29167%
Source Step = 8.00189%
Source Step = 8.71212%
vernier = 0.0351563
Source Step = 9.59991%
Source Step = 10.6652%
Source Step = 11.7306%
Source Step = 12.7959%
Source Step = 13.8613%
vernier = 0.0527344
Source Step = 15.1397%
Source Step = 16.7377%
Source Step = 18.3357%
Source Step = 19.9337%
Source Step = 21.5317%
vernier = 0.0791016
Source Step = 23.3694%
Source Step = 25.7665%
Source Step = 28.1635%
Source Step = 30.5605%
Source Step = 32.9575%
vernier = 0.118652
Source Step = 35.5942%
Source Step = 39.1897%
Source Step = 42.7853%
Source Step = 46.3808%
Source Step = 49.9763%
vernier = 0.177979
Source Step = 53.7516%
Source Step = 59.1449%
Source Step = 64.5382%
Source Step = 69.9315%
Source Step = 75.3248%
Source Step = 80.7181%
vernier = 0.266968
Source Step = 84.7662%
Source Step = 84.7978%
Source Step = 84.8294%
Source Step = 84.861%
Source Step = 84.8926%
Source Step = 84.9242%
vernier = 0.00156426
Source Step = 84.9669%
Source Step = 85.0143%
Source Step = 85.0617%
Source Step = 85.1091%
Source Step = 85.1565%
vernier = 0.0023464
Source Step = 85.2181%
Source Step = 85.2892%
Source Step = 85.3603%
Source Step = 85.4314%
Source Step = 85.5025%
vernier = 0.00351959
Source Step = 85.5914%
Source Step = 85.698%
Source Step = 85.8047%
Source Step = 85.9113%
Source Step = 86.018%
vernier = 0.00527939
Source Step = 86.146%
Source Step = 86.306%
Source Step = 86.466%
Source Step = 86.6259%
Source Step = 86.7859%
vernier = 0.00791909
Source Step = 86.9699%
Source Step = 87.2099%
Source Step = 87.4498%
Source Step = 87.6898%
Starting source stepping with srcstepmethod=1
Source Step = 3.0303%
vernier = 0.25
Source Step = 0.378788%
Source Step = 0.852273%
Source Step = 1.32576%
Source Step = 1.79924%
Source Step = 2.27273%
vernier = 0.0234375
Source Step = 2.91193%
Source Step = 3.62216%
Source Step = 4.33239%
Source Step = 5.04261%
Source Step = 5.75284%
vernier = 0.0351563
Source Step = 6.67614%
Source Step = 7.74148%
Source Step = 8.80682%
Source stepping failed

Pseudo Transient succeeded in finding the operating point at 486.6 ms.
Heightened Def Con from 0.000576279 to 0.000576279
Heightened Def Con from 0.00065138 +++++++++++++++++++++++to 0.00065138
Heightened Def Con from 0.000652577 +++to 0.000652578
Heightened Def Con from 0.000653545 ++to 0.000653546
Heightened Def Con from 0.000776506 +to 0.000776506
Heightened Def Con from 0.000790416 to 0.000790419
Heightened Def Con from 0.000853371 to 0.000853371
Heightened Def Con from 0.000976241 ++to 0.000976241
Heightened Def Con from 0.000976497 to 0.000976497
Heightened Def Con from 0.00105081 ++++++++++++++++++++++++++++++to 0.00105081
Heightened Def Con from 0.00105205 to 0.00105205
Heightened Def Con from 0.00105837 to 0.00105837
Heightened Def Con from 0.00105838 to 0.00105838
Heightened Def Con from 0.00117645 +to 0.00117645
Heightened Def Con from 0.00119041 to 0.00119042
Heightened Def Con from 0.00125329 to 0.00125329
Heightened Def Con from 0.00125329 to 0.00125329
Heightened Def Con from 0.00125354 to 0.00125354
Heightened Def Con from 0.00136939 to 0.0013694
Heightened Def Con from 0.00137507 +++++++++++++++++++++++++++++to 0.00137508
Heightened Def Con from 0.00144506 to 0.00144506
Heightened Def Con from 0.00145347 to 0.00145347
Heightened Def Con from 0.00157557 ++to 0.00157557
Heightened Def Con from 0.00157608 ++++++++++++++++++++++++++to 0.00157608
Heightened Def Con from 0.00159042 to 0.00159042
Heightened Def Con from 0.00165128 to 0.00165128
Heightened Def Con from 0.00165342 +to 0.00165342
Heightened Def Con from 0.00165356 to 0.00165356
Heightened Def Con from 0.00177055 to 0.00177055
Heightened Def Con from 0.00177466 ++++++++++++++++++++++++++++++to 0.00177467
Heightened Def Con from 0.00177655 to 0.00177655
Heightened Def Con from 0.00179041 to 0.00179041
Heightened Def Con from 0.00179042 to 0.00179042
Heightened Def Con from 0.00185057 ++++++++++++++++++++++++++++++++++to 0.00185058
Heightened Def Con from 0.00185058 ++++++++++++++++++to 0.00185058
Heightened Def Con from 0.00185696 to 0.00185696
Heightened Def Con from 0.00185697 to 0.00185697
Heightened Def Con from 0.00197045 to 0.00197045
Heightened Def Con from 0.00197625 to 0.00197625
Heightened Def Con from 0.00197625 to 0.00197625
Heightened Def Con from 0.00197651 ++++++++++++++++++++++++to 0.00197651
Heightened Def Con from 0.00199041 to 0.00199041
Heightened Def Con from 0.00205342 to 0.00205342
Heightened Def Con from 0.00205355 to 0.00205355
Heightened Def Con from 0.00217541 +++++++++++++++++++++++++++++to 0.00217541
Heightened Def Con from 0.00217663 to 0.00217663
Heightened Def Con from 0.00224649 to 0.00224649
Heightened Def Con from 0.00224649 to 0.0022465
Heightened Def Con from 0.00225127 ++++++++++++++++++++++++++++++to 0.00225128
Heightened Def Con from 0.00225278 ++++++++++++++++++to 0.00225278
Heightened Def Con from 0.00237194 to 0.00237194
Heightened Def Con from 0.00237648 +to 0.00237648
Heightened Def Con from 0.00239041 to 0.00239041
Heightened Def Con from 0.00245357 +to 0.00245357

Date: Fri Apr 11 08:18:25 2025
Total elapsed time: 6.624 seconds.

tnom = 27
temp = 27
method = modified trap
totiter = 123292
traniter = 109485
tranpoints = 22012
accept = 13960
rejected = 8490
matrix size = 334
fillins = 758
solver = Normal
Thread vector: 16.1/9.7[6] 3.5/2.0[6] 4.9/2.2[5] 1.1/1.1[2]  2592/500
Matrix Compiler1: 75.01 KB object code size  10.3/4.6/[2.3]
Matrix Compiler2: 42.07 KB object code size  4.3/5.6/[1.5]

