Circuit: * C:\IMR_Projects\IMR\Arb_Power_Booster\Simulate\Current Amp-IC-Form-Single.asc

WARNING: Node N002 is floating.

WARNING: Less than two connections to node NC_02.  This node is used by R2.
WARNING: Less than two connections to node NC_03.  This node is used by V4.
Early termination of direct N-R iteration.
Direct Newton iteration failed to find .op point.  (Use ".option noopiter" to skip.)
Starting Gmin stepping
Gmin = 10
Gmin = 1.07374
Gmin = 0.115292
Gmin = 0.0123794
Gmin = 0.00132923
Gmin = 0.000142725
Gmin = 1.5325e-005
vernier = 0.5
vernier = 0.666667
Gmin = 5.73799e-006
vernier = 0.888888
vernier = 1
Gmin = 8.09366e-007
Gmin = 8.6905e-008
Gmin = 9.33136e-009
Gmin = 1.00195e-009
Gmin = 1.07583e-010
Gmin = 1.15517e-011
Gmin = 1.24035e-012
Gmin = 1.33182e-013
Gmin = 0
Gmin stepping succeeded in finding the operating point.


Date: Tue May 06 10:02:20 2025
Total elapsed time: 0.120 seconds.

tnom = 27
temp = 27
method = modified trap
totiter = 2881
traniter = 2126
tranpoints = 1063
accept = 1057
rejected = 6
matrix size = 109
fillins = 293
solver = Normal
Thread vector: 3.0/2.5[2] 1.7/1.2[2] 0.7/1.1[1] 0.3/0.8[1]  2592/500
Matrix Compiler1: 28.78 KB object code size  3.1/1.5/[0.8]
Matrix Compiler2: 14.34 KB object code size  1.1/1.1/[0.4]

