Circuit: * C:\IMR_Projects\IMR\Arb_Power_Booster\Simulate\Current Amplifier-1_REV_20.asc

WARNING: Less than two connections to node NC_01.  This node is used by V4.
Direct Newton iteration failed to find .op point.  (Use ".option noopiter" to skip.)
Starting Gmin stepping
Increasing initial diagonal Gmin to 100
Gmin = 100
Gmin = 10.7374
Gmin = 1.15292
vernier = 0.5
vernier = 0.666667
Gmin = 0.4029
vernier = 0.888888
vernier = 1
Gmin = 0.06089
Gmin = 0.00653801
vernier = 0.5
Gmin = 0.0010969
vernier = 0.25
vernier = 0.125
vernier = 0.0625
vernier = 0.03125
Gmin = 0.00100109
vernier = 0.015625
vernier = 0.0078125
vernier = 0.00390625
Gmin = 0.000993308
vernier = 0.00195313
vernier = 0.000976563
vernier = 0.00130208
Gmin = 0.000992419
vernier = 0.00173611
Gmin = 0.000988551
vernier = 0.00231481
vernier = 0.00308642
Gmin = 0.000982091
vernier = 0.00411522
vernier = 0.00548696
Gmin = 0.000971878
vernier = 0.00731595
Gmin = 0.000956024
vernier = 0.00975459
vernier = 0.0130061
Gmin = 0.000929999
vernier = 0.0173415
vernier = 0.023122
Gmin = 0.000889988
vernier = 0.0308293
Gmin = 0.000830548
vernier = 0.0411057
vernier = 0.0548076
Gmin = 0.000739745
vernier = 0.0730768
vernier = 0.0974357
Gmin = 0.000615435
vernier = 0.129914
Gmin = 0.00046141
vernier = 0.173219
vernier = 0.230959
Gmin = 0.000285828
vernier = 0.307945
vernier = 0.410593
Gmin = 0.000134652
vernier = 0.547457
Gmin = 4.21904e-005
vernier = 0.729942
vernier = 0.973256
Gmin = 6.45825e-006
vernier = 1
vernier = 0.5
vernier = 0.25
Gmin = 1.369e-006
vernier = 0.125
vernier = 0.0625
vernier = 0.03125
vernier = 0.015625
vernier = 0.0208333
Gmin = 1.33561e-006
vernier = 0.0277778
Gmin = 1.25711e-006
vernier = 0.037037
vernier = 0.0493827
vernier = 0.0246913
Gmin = 1.16687e-006
vernier = 0.0123457
vernier = 0.00617283
vernier = 0.00308642
vernier = 0.00154321
vernier = 0.000771604
vernier = 0.000578703
vernier = 0.000434027
Gmin = 0
Gmin stepping failed

Starting source stepping with srcstepmethod=0
Source Step = 3.0303%
vernier = 0.25
Source Step = 1.70455%
Source Step = 3.59848%
Source Step = 5.49242%
Source Step = 7.38636%
Source Step = 9.2803%
vernier = 0.09375
Source Step = 11.9318%
Source Step = 14.7727%
Source Step = 17.6136%
Source Step = 20.4545%
Source Step = 23.2955%
vernier = 0.140625
Source Step = 24.5938%
Source Step = 24.6604%
Source Step = 24.727%
Source Step = 24.7936%
Source Step = 24.8602%
Source Step = 24.9268%
vernier = 0.0032959
Source Step = 25.01%
Source Step = 25.1099%
Source Step = 25.2097%
Source Step = 25.3096%
Source Step = 25.4095%
vernier = 0.00494385
Source Step = 25.5293%
Source Step = 25.6792%
Source Step = 25.829%
Source Step = 25.9788%
Source Step = 26.1286%
vernier = 0.00741577
Source Step = 26.3009%
Source Step = 26.5256%
Source Step = 26.7503%
Source Step = 26.975%
Source Step = 27.1998%
vernier = 0.0111237
Source Step = 27.447%
Source Step = 27.784%
Source Step = 28.1211%
Source Step = 28.4582%
Source Step = 28.7953%
vernier = 0.0166855
Source Step = 29.1492%
Source Step = 29.6548%
Source Step = 30.1605%
Source Step = 30.6661%
Source Step = 31.1717%
Source Step = 31.6773%
vernier = 0.0250282
Source Step = 32.4357%
Source Step = 33.1942%
Source Step = 33.9526%
Source Step = 34.711%
Source Step = 35.4695%
vernier = 0.0375423
Source Step = 36.5692%
Source Step = 37.7068%
Source Step = 38.8445%
Source Step = 39.9821%
Source Step = 41.1198%
vernier = 0.0563135
Source Step = 42.7125%
Source Step = 44.419%
Source Step = 46.1254%
Source Step = 47.8319%
Source Step = 49.5384%
vernier = 0.0844703
Source Step = 51.8421%
Source Step = 54.4018%
Source Step = 56.9615%
Source Step = 59.5212%
Source Step = 62.0809%
vernier = 0.126705
Source Step = 65.4085%
Source Step = 69.2481%
Source Step = 73.0877%
Source Step = 76.9272%
Source Step = 80.7668%
vernier = 0.190058
Source Step = 85.5662%
Source Step = 91.3256%
vernier = 0.0475145
Source Step = 90.8216%
Source Step = 90.9116%
Starting source stepping with srcstepmethod=1
Source Step = 3.0303%
vernier = 0.25
Source Step = 0.378788%
Source Step = 0.852273%
Source Step = 1.32576%
Source Step = 1.79924%
Source Step = 2.27273%
vernier = 0.0234375
Source Step = 2.91193%
Source Step = 3.62216%
Source Step = 4.33239%
Source Step = 5.04261%
Source Step = 5.75284%
vernier = 0.0351563
Source Step = 6.67614%
Source Step = 7.74148%
Source Step = 8.80682%
Source Step = 9.87216%
Source Step = 10.9375%
vernier = 0.0527344
Source Step = 12.2692%
Source Step = 13.8672%
Source Step = 15.4652%
Source Step = 17.0632%
Source Step = 18.6612%
vernier = 0.0791016
Source Step = 20.5788%
Source Step = 22.9759%
Source Step = 25.3729%
Source Step = 27.7699%
Source Step = 30.1669%
vernier = 0.118652
Source Step = 32.9235%
Source Step = 36.519%
Source Step = 40.1145%
Source Step = 43.71%
Source Step = 47.3056%
vernier = 0.177979
Source Step = 51.2607%
Source Step = 56.6539%
Source Step = 62.0472%
Source Step = 67.4405%
Source Step = 72.8338%
vernier = 0.266968
Source Step = 78.4968%
Source Step = 86.5867%
Source Step = 91.4533%
vernier = 0.00104284
Source Step = 91.4723%
Source stepping failed

Pseudo Transient succeeded in finding the operating point at 268.471 ms.

Date: Mon Feb 24 05:36:07 2025
Total elapsed time: 2.652 seconds.

tnom = 27
temp = 27
method = modified trap
totiter = 30556
traniter = 12881
tranpoints = 3607
accept = 2923
rejected = 718
matrix size = 204
fillins = 343
solver = Normal
Thread vector: 7.3/6.1[3] 2.7/2.0[3] 2.3/1.2[3] 0.7/2.1[1]  2592/500
Matrix Compiler1: 34.56 KB object code size  4.6/2.2/[1.0]
Matrix Compiler2: 24.08 KB object code size  3.8/2.9/[0.7]

