Circuit: * C:\IMR_Projects\IMR\Arb_Power_Booster\Simulate\Current Amplifier-1_REV_20.asc

WARNING: Node NC_09 is floating.

WARNING: Less than two connections to node NC_07.  This node is used by V4.
WARNING: Less than two connections to node NC_08.  This node is used by V5.
WARNING: Less than two connections to node NC_09.  This node is used by V5.
Direct Newton iteration for .op point succeeded.

Date: Tue Feb 11 15:24:09 2025
Total elapsed time: 0.659 seconds.

tnom = 27
temp = 27
method = modified trap
totiter = 19751
traniter = 19729
tranpoints = 6543
accept = 5066
rejected = 1477
matrix size = 350
fillins = 353
solver = Normal
Thread vector: 24.9/8.0[7] 7.3/2.2[7] 5.3/1.7[7] 1.2/2.2[1]  2592/500
Matrix Compiler1: 42.39 KB object code size  9.2/6.3/[4.1]
Matrix Compiler2: 36.74 KB object code size  3.7/5.2/[1.3]

