Circuit: * C:\IMR_Projects\IMR\Arb_Power_Booster\Simulate\Current Amplifier-1_REV_22.asc

WARNING: Less than two connections to node NC_01.  This node is used by V3.
Direct Newton iteration failed to find .op point.  (Use ".option noopiter" to skip.)
Starting Gmin stepping
Increasing initial diagonal Gmin to 100
Gmin = 100
Gmin = 10.7374
Gmin = 1.15292
vernier = 0.5
vernier = 0.666667
Gmin = 0.4029
vernier = 0.888888
vernier = 1
Gmin = 0.06089
Gmin = 0.00653801
vernier = 0.5
vernier = 0.25
Gmin = 0.00201635
vernier = 0.125
vernier = 0.0625
vernier = 0.03125
vernier = 0.015625
Gmin = 0.00197761
vernier = 0.0078125
vernier = 0.00390625
vernier = 0.00520833
Gmin = 0.00196925
vernier = 0.00694444
Gmin = 0.00193959
vernier = 0.00925925
vernier = 0.0123457
Gmin = 0.00189198
vernier = 0.0164609
vernier = 0.0219478
Gmin = 0.00181896
vernier = 0.0292638
Gmin = 0.00170652
vernier = 0.0390184
vernier = 0.0520245
Gmin = 0.0015375
vernier = 0.0693659
vernier = 0.0924879
Gmin = 0.00130392
vernier = 0.123317
vernier = 0.0616586
Gmin = 0.00109431
vernier = 0.0308293
vernier = 0.0154146
vernier = 0.00770732
vernier = 0.00385366
Gmin = 0.00109633
vernier = 0.00192683
vernier = 0.00256911
Gmin = 0.00109159
vernier = 0.00342548
vernier = 0.0045673
Gmin = 0.00108267
vernier = 0.00608973
Gmin = 0.00106836
vernier = 0.00811964
vernier = 0.0108262
Gmin = 0.00104532
vernier = 0.0144349
vernier = 0.0192465
Gmin = 0.00100985
vernier = 0.025662
Gmin = 0.000954877
vernier = 0.0342161
vernier = 0.0456214
Gmin = 0.000871364
vernier = 0.0608285
vernier = 0.0811047
Gmin = 0.000754011
vernier = 0.10814
Gmin = 0.000596847
vernier = 0.144186
vernier = 0.192248
Gmin = 0.000408171
vernier = 0.25633
vernier = 0.128165
vernier = 0.0640826
Gmin = 0.000294276
vernier = 0.0320413
vernier = 0.0160207
vernier = 0.00801033
vernier = 0.00400516
Gmin = 0.000290773
vernier = 0.00200258
vernier = 0.00100129
Gmin = 0.000290046
vernier = 0.00133505
vernier = 0.00178007
Gmin = 0.000289007
vernier = 0.00237343
vernier = 0.00316457
Gmin = 0.000287369
vernier = 0.00421943
Gmin = 0.00028473
vernier = 0.0056259
vernier = 0.0075012
Gmin = 0.000280461
vernier = 0.0100016
vernier = 0.0133355
Gmin = 0.000273828
vernier = 0.0177806
Gmin = 0.000263403
vernier = 0.0237075
vernier = 0.03161
Gmin = 0.000247195
vernier = 0.0421466
vernier = 0.0561954
Gmin = 0.00022357
vernier = 0.0749272
Gmin = 0.000190029
vernier = 0.099903
vernier = 0.133204
Gmin = 0.000145813
vernier = 0.177605
vernier = 0.236807
Gmin = 9.61466e-005
vernier = 0.315742
Gmin = 4.93245e-005
vernier = 0.42099
vernier = 0.561319
Gmin = 1.69129e-005
vernier = 0.748426
vernier = 0.374213
Gmin = 4.83814e-006
vernier = 0.187106
vernier = 0.249475
vernier = 0.124738
Gmin = 3.52021e-006
vernier = 0.0623688
vernier = 0.0311844
vernier = 0.0155922
vernier = 0.0077961
vernier = 0.00389805
vernier = 0.00194903
vernier = 0.000974513
Gmin = 3.49293e-006
vernier = 0.000487256
Gmin = 0
Gmin stepping failed

Starting source stepping with srcstepmethod=0
Source Step = 3.0303%
Source Step = 3.36174%
Source Step = 3.83523%
Source Step = 4.30871%
Source Step = 4.7822%
Source Step = 5.25568%
vernier = 0.0234375
Source Step = 5.87121%
Source Step = 6.58144%
Source Step = 7.29167%
Source Step = 8.00189%
Source Step = 8.71212%
vernier = 0.0351563
Source Step = 9.59991%
Source Step = 10.6652%
Source Step = 11.7306%
Source Step = 12.7959%
Source Step = 13.8613%
vernier = 0.0527344
Source Step = 15.1397%
Source Step = 16.7377%
Source Step = 18.3357%
Source Step = 19.9337%
Source Step = 21.5317%
vernier = 0.0791016
Source Step = 23.3694%
Source Step = 25.7665%
Source Step = 28.1635%
Source Step = 30.5605%
Source Step = 32.9575%
vernier = 0.118652
Source Step = 35.5942%
Source Step = 39.1897%
Source Step = 42.7853%
Source Step = 46.3808%
Source Step = 49.9763%
vernier = 0.177979
Source Step = 53.7516%
Source Step = 59.1449%
Source Step = 64.5382%
Source Step = 69.9315%
Source Step = 71.5832%
Starting source stepping with srcstepmethod=1
Source Step = 3.0303%
vernier = 0.25
Source Step = 0.378788%
Source Step = 0.852273%
Source Step = 1.32576%
Source Step = 1.79924%
Source Step = 2.27273%
vernier = 0.0234375
Source Step = 2.91193%
Source Step = 3.62216%
Source Step = 4.33239%
Source Step = 5.04261%
Source Step = 5.75284%
vernier = 0.0351563
Source Step = 6.67614%
Source Step = 7.74148%
Source Step = 8.80682%
Source Step = 9.87216%
Source Step = 10.9375%
vernier = 0.0527344
Source Step = 12.2692%
Source Step = 13.8672%
Source Step = 15.4652%
Source Step = 17.0632%
Source Step = 18.6612%
vernier = 0.0791016
Source Step = 20.5788%
Source Step = 22.9759%
Source Step = 25.3729%
Source Step = 27.7699%
Source Step = 30.1669%
vernier = 0.118652
Source Step = 32.9235%
Source Step = 36.519%
Source Step = 40.1145%
Source Step = 43.71%
Source Step = 47.3056%
vernier = 0.177979
Source Step = 51.2607%
Source Step = 56.6539%
Source Step = 62.0472%
Source Step = 67.4405%
Source Step = 72.8338%
vernier = 0.266968
Source Step = 78.4968%
Source Step = 86.5867%
Source Step = 91.4533%
Source stepping failed

Pseudo Transient succeeded in finding the operating point at 620.83 ms.

Date: Thu Apr 03 19:59:09 2025
Total elapsed time: 5.382 seconds.

tnom = 27
temp = 27
method = modified trap
totiter = 23382
traniter = 3768
tranpoints = 1118
accept = 1094
rejected = 140
matrix size = 333
fillins = 811
solver = Normal
Thread vector: 24.3/13.7[6] 4.5/1.9[6] 4.6/2.2[6] 1.3/2.0[1]  2592/500
Matrix Compiler1: 82.62 KB object code size  10.9/4.9/[2.5]
Matrix Compiler2: 43.08 KB object code size  3.9/6.1/[1.8]

