Circuit: * C:\IMR_Projects\IMR\Arb_Power_Booster\Simulate\Current Amplifier-1_REV_21.asc

WARNING: Less than two connections to node NC_01.  This node is used by D7.
WARNING: Less than two connections to node NC_02.  This node is used by D8.
WARNING: Less than two connections to node NC_03.  This node is used by V3.
Direct Newton iteration failed to find .op point.  (Use ".option noopiter" to skip.)
Starting Gmin stepping
Increasing initial diagonal Gmin to 100
Gmin = 100
Gmin = 10.7374
Gmin = 1.15292
vernier = 0.5
vernier = 0.666667
Gmin = 0.4029
vernier = 0.888888
vernier = 1
Gmin = 0.06089
Gmin = 0.00653801
vernier = 0.5
vernier = 0.25
Gmin = 0.00201635
vernier = 0.125
vernier = 0.0625
vernier = 0.03125
vernier = 0.015625
Gmin = 0.00202964
vernier = 0.0078125
vernier = 0.00390625
Gmin = 0.00201582
vernier = 0.00520833
vernier = 0.00694444
Gmin = 0.00198631
vernier = 0.00925925
vernier = 0.0123457
Gmin = 0.00194017
vernier = 0.0164609
Gmin = 0.00186975
vernier = 0.0219478
vernier = 0.0292638
Gmin = 0.00175737
vernier = 0.0390184
vernier = 0.0520245
Gmin = 0.00159225
vernier = 0.0693659
Gmin = 0.00136384
vernier = 0.0924879
vernier = 0.123317
vernier = 0.0616586
Gmin = 0.00115322
vernier = 0.0308293
vernier = 0.0154146
vernier = 0.00770732
vernier = 0.00385366
vernier = 0.00192683
Gmin = 0.00115314
vernier = 0.000963415
vernier = 0.00128455
Gmin = 0.00115027
vernier = 0.00171274
vernier = 0.00228365
Gmin = 0.00114527
vernier = 0.00304487
Gmin = 0.00113746
vernier = 0.00405982
vernier = 0.00541309
Gmin = 0.00112446
vernier = 0.00721745
vernier = 0.00962327
Gmin = 0.00110404
vernier = 0.012831
Gmin = 0.00107266
vernier = 0.017108
vernier = 0.0228107
Gmin = 0.00102203
vernier = 0.0304143
vernier = 0.0405523
Gmin = 0.000946292
vernier = 0.0540698
Gmin = 0.000838523
vernier = 0.072093
vernier = 0.096124
Gmin = 0.000685041
vernier = 0.128165
vernier = 0.170887
Gmin = 0.000497245
vernier = 0.0854435
vernier = 0.0427217
vernier = 0.0213609
vernier = 0.0106804
vernier = 0.00534022
vernier = 0.00267011
vernier = 0.00133505
vernier = 0.000667527
vernier = 0.000500645
Gmin = 0.000497245
Gmin = 0
Gmin stepping failed

Starting source stepping with srcstepmethod=0
Source Step = 3.0303%
vernier = 0.25
Source Step = 2.27273%
Source Step = 4.16667%
Source Step = 6.06061%
Source Step = 7.95455%
Source Step = 9.84848%
vernier = 0.09375
Source Step = 12.4053%
Source Step = 15.2462%
Source Step = 18.0871%
Source Step = 20.928%
Source Step = 23.7689%
vernier = 0.140625
Source Step = 27.4621%
Source Step = 31.7235%
Source Step = 35.9848%
Source Step = 40.2462%
Source Step = 44.5076%
vernier = 0.210938
Source Step = 49.8343%
Source Step = 56.2263%
Source Step = 62.6184%
Source Step = 69.0104%
Source Step = 70.968%
Starting source stepping with srcstepmethod=1
Source Step = 3.0303%
vernier = 0.25
Source Step = 0.378788%
Source Step = 0.852273%
Source Step = 1.32576%
Source Step = 1.79924%
Source Step = 2.27273%
vernier = 0.0234375
Source Step = 2.91193%
Source Step = 3.62216%
Source Step = 4.33239%
Source Step = 5.04261%
Source Step = 5.75284%
vernier = 0.0351563
Source Step = 6.67614%
Source Step = 7.55504%
vernier = 0.00219727
Source stepping failed

Pseudo Transient succeeded in finding the operating point at 970.127 ms.

Date: Wed Apr 02 13:53:28 2025
Total elapsed time: 4.435 seconds.

tnom = 27
temp = 27
method = modified trap
totiter = 38883
traniter = 3684
tranpoints = 1111
accept = 1090
rejected = 777
matrix size = 337
fillins = 789
solver = Normal
Thread vector: 24.1/8.1[6] 4.8/1.9[6] 4.7/4.1[3] 2.1/2.4[1]  2592/500
Matrix Compiler1: 77.68 KB object code size  13.0/6.0/[3.0]
Matrix Compiler2: 42.88 KB object code size  4.1/5.7/[3.9]

