Circuit: * C:\IMR_Projects\IMR\Arb_Power_Booster\Simulate\Current Amplifier-1_REV_2.asc

WARNING: Node NC_03 is floating.

WARNING: Less than two connections to node NC_01.  This node is used by V4.
WARNING: Less than two connections to node NC_02.  This node is used by V5.
WARNING: Less than two connections to node NC_03.  This node is used by V5.
Direct Newton iteration failed to find .op point.  (Use ".option noopiter" to skip.)
Starting Gmin stepping
Gmin = 10
Gmin = 1.07374
Gmin = 0.115292
Gmin = 0.0123794
Gmin = 0.00132923
Gmin = 0.000142725
Gmin = 1.5325e-005
Gmin = 1.6455e-006
Gmin = 1.76685e-007
Gmin = 1.89714e-008
Gmin = 2.03704e-009
Gmin = 2.18725e-010
Gmin = 2.34854e-011
Gmin = 2.52173e-012
Gmin = 2.70769e-013
Gmin = 0
Gmin stepping succeeded in finding the operating point.


Date: Wed Feb 05 14:08:34 2025
Total elapsed time: 0.178 seconds.

tnom = 27
temp = 27
method = modified trap
totiter = 3810
traniter = 3350
tranpoints = 1366
accept = 1214
rejected = 152
matrix size = 93
fillins = 80
solver = Normal
Matrix Compiler1: 12.62 KB object code size  1.3/0.7/[0.4]
Matrix Compiler2: 10.35 KB object code size  0.6/1.1/[0.4]

