Circuit: * C:\IMR_Projects\IMR\Arb_Power_Booster\Simulate\Current Amp-PowerAmp.asc

WARNING: Less than two connections to node NC_01.  This node is used by V3.
Direct Newton iteration failed to find .op point.  (Use ".option noopiter" to skip.)
Starting Gmin stepping
Increasing initial diagonal Gmin to 100
Gmin = 100
Gmin = 10.7374
Gmin = 1.15292
vernier = 0.5
vernier = 0.666667
Gmin = 0.4029
vernier = 0.888888
vernier = 1
Gmin = 0.06089
Gmin = 0.00653801
Gmin = 0.000702013
vernier = 0.5
vernier = 0.25
vernier = 0.125
Gmin = 0.000497025
vernier = 0.0625
vernier = 0.03125
vernier = 0.015625
vernier = 0.0078125
Gmin = 0.000501728
vernier = 0.0104167
Gmin = 0.000490119
vernier = 0.0138889
vernier = 0.0185185
Gmin = 0.000471244
vernier = 0.0246913
vernier = 0.0329218
Gmin = 0.000442669
vernier = 0.0438957
Gmin = 0.000401236
vernier = 0.0585276
vernier = 0.0780367
Gmin = 0.000340396
vernier = 0.104049
vernier = 0.138732
Gmin = 0.000262224
vernier = 0.184976
Gmin = 0.00017444
vernier = 0.246634
vernier = 0.328846
Gmin = 8.88152e-005
vernier = 0.438461
vernier = 0.584614
Gmin = 3.09274e-005
vernier = 0.779486
Gmin = 6.15807e-006
vernier = 1
vernier = 0.5
vernier = 0.25
vernier = 0.125
Gmin = 1.6143e-006
vernier = 0.0625
vernier = 0.03125
vernier = 0.015625
vernier = 0.0078125
vernier = 0.00390625
vernier = 0.00195313
vernier = 0.000976563
vernier = 0.000488281
Gmin = 0
Gmin stepping succeeded in finding the operating point.


Date: Sun Apr 13 14:53:45 2025
Total elapsed time: 0.377 seconds.

tnom = 27
temp = 27
method = modified trap
totiter = 5371
traniter = 2569
tranpoints = 1207
accept = 1124
rejected = 83
matrix size = 174
fillins = 224
solver = Normal
Thread vector: 5.7/4.0[3] 1.5/1.2[3] 1.5/1.0[3] 1.8/1.1[3]  2592/500
Matrix Compiler1: 22.92 KB object code size  2.8/1.3/[0.6]
Matrix Compiler2: 18.72 KB object code size  1.4/1.9/[0.5]

