Circuit: * C:\IMR_Projects\IMR\Arb_Power_Booster\Simulate\Current Amplifier-1_REV_20.asc

WARNING: Less than two connections to node NC_01.  This node is used by V4.
Direct Newton iteration for .op point succeeded.

Date: Thu Mar 20 13:33:33 2025
Total elapsed time: 0.258 seconds.

tnom = 27
temp = 27
method = modified trap
totiter = 11726
traniter = 11712
tranpoints = 3358
accept = 2740
rejected = 618
matrix size = 205
fillins = 215
solver = Normal
Thread vector: 10.1/5.3[3] 2.7/1.5[3] 2.0/1.1[3] 0.9/1.2[1]  2592/500
Matrix Compiler1: 25.82 KB object code size  3.5/1.8/[1.3]
Matrix Compiler2: 22.04 KB object code size  1.4/1.8/[0.8]

