Circuit: * C:\IMR_Projects\IMR\Arb_Power_Booster\Simulate\Current Amplifier-1_REV_20.asc

WARNING: Less than two connections to node NC_01.  This node is used by V4.
Direct Newton iteration for .op point succeeded.

Date: Mon Feb 17 06:21:41 2025
Total elapsed time: 0.551 seconds.

tnom = 27
temp = 27
method = modified trap
totiter = 20036
traniter = 20024
tranpoints = 6645
accept = 5145
rejected = 1500
matrix size = 204
fillins = 213
solver = Normal
Thread vector: 29.0/10.5[3] 4.7/3.2[3] 2.6/1.6[2] 1.9/1.8[2]  2592/500
Matrix Compiler1: 25.88 KB object code size  5.8/2.8/[1.7]
Matrix Compiler2: 21.88 KB object code size  2.4/2.7/[2.2]

