Circuit: * C:\IMR_Projects\IMR\Arb_Power_Booster\Simulate\Draft1.asc

Direct Newton iteration for .op point succeeded.

Date: Thu Apr 03 21:12:03 2025
Total elapsed time: 0.274 seconds.

tnom = 27
temp = 27
method = modified trap
totiter = 5889
traniter = 5879
tranpoints = 1880
accept = 1638
rejected = 242
matrix size = 259
fillins = 287
solver = Normal
Thread vector: 8.0/4.5[6] 5.6/1.5[6] 5.4/1.6[6] 0.9/1.6[1]  2592/500
Matrix Compiler1: 29.77 KB object code size  5.9/4.6/[3.5]
Matrix Compiler2: 26.86 KB object code size  3.7/3.9/[1.6]

