Circuit: * C:\IMR_Projects\IMR\Arb_Power_Booster\Simulate\Draft2.asc

Direct Newton iteration for .op point succeeded.

Date: Wed Mar 19 13:35:17 2025
Total elapsed time: 0.083 seconds.

tnom = 27
temp = 27
method = modified trap
totiter = 2092
traniter = 2088
tranpoints = 1045
accept = 1045
rejected = 0
matrix size = 15
fillins = 0
solver = Normal
Matrix Compiler1: 934 bytes object code size  0.2/0.1/[0.1]
Matrix Compiler2: off  [0.1]/0.2/0.2

