Circuit: * C:\IMR_Projects\IMR\Arb_Power_Booster\Simulate\Draft1.asc

Early termination of direct N-R iteration.
Direct Newton iteration failed to find .op point.  (Use ".option noopiter" to skip.)
Starting Gmin stepping
Gmin = 10
Gmin = 1.07374
Gmin = 0.115292
Gmin = 0.0123794
Gmin = 0.00132923
Gmin = 0.000142725
Gmin = 1.5325e-005
vernier = 0.5
vernier = 0.25
vernier = 0.125
vernier = 0.0625
Gmin = 1.74789e-005
vernier = 0.0833333
vernier = 0.111111
Gmin = 1.43445e-005
vernier = 0.148148
Gmin = 1.04284e-005
vernier = 0.197531
vernier = 0.263374
Gmin = 6.21928e-006
vernier = 0.351165
vernier = 0.46822
Gmin = 2.77531e-006
vernier = 0.23411
vernier = 0.117055
vernier = 0.0585276
vernier = 0.0292638
Gmin = 2.46644e-006
vernier = 0.0146319
vernier = 0.00731595
vernier = 0.00365797
vernier = 0.00182899
Gmin = 2.46419e-006
vernier = 0.000914493
vernier = 0.000457247
Gmin = 0
Gmin stepping failed

Starting source stepping with srcstepmethod=0
Source Step = 3.0303%
Source Step = 33.3333%
Source Step = 63.6364%
Source Step = 93.9394%
Source stepping succeeded in finding the operating point.


Date: Wed Apr 23 10:09:28 2025
Total elapsed time: 1.320 seconds.

tnom = 27
temp = 27
method = modified trap
totiter = 5656
traniter = 2527
tranpoints = 1163
accept = 1102
rejected = 61
matrix size = 204
fillins = 960
solver = Normal
Thread vector: 4.8/9.5[1] 4.6/2.0[5] 1.5/1.8[1] 0.7/1.6[1]  2592/500
Matrix Compiler1: 115.27 KB object code size  12.9/6.1/[3.2]
Matrix Compiler2: 34.44 KB object code size  2.7/4.6/[0.7]

