Circuit: * C:\IMR_Projects\IMR\Arb_Power_Booster\Simulate\Draft1.asc

WARNING: Less than two connections to node NC_01.  This node is used by D4.
Direct Newton iteration for .op point succeeded.

Date: Mon Feb 24 15:45:50 2025
Total elapsed time: 0.146 seconds.

tnom = 27
temp = 27
method = modified trap
totiter = 2126
traniter = 2096
tranpoints = 1049
accept = 1049
rejected = 0
matrix size = 20
fillins = 2
solver = Normal
Matrix Compiler1: 1.16 KB object code size  0.2/0.1/[0.1]
Matrix Compiler2: off  [0.1]/0.2/0.1

