Missing ".ends" statement in file "MMSZ5226BS.MOD"
Circuit: * C:\IMR_Projects\IMR\Arb_Power_Booster\Simulate\Draft1.asc

Direct Newton iteration for .op point succeeded.

Date: Tue Mar 18 08:53:48 2025
Total elapsed time: 0.067 seconds.

tnom = 27
temp = 27
method = modified trap
totiter = 2096
traniter = 2088
tranpoints = 1045
accept = 1045
rejected = 0
matrix size = 7
fillins = 2
solver = Normal
Matrix Compiler1: 286 bytes object code size  0.1/0.0/[0.0]
Matrix Compiler2: off  [0.0]/0.1/0.0

