Circuit: * C:\IMR_Projects\IMR\Arb_Power_Booster\Simulate\Draft3.asc

Instance "m:u2:1": Width narrower than recommended for a level 3 MOSFET.
Direct Newton iteration for .op point succeeded.

Date: Wed May 07 11:52:39 2025
Total elapsed time: 0.169 seconds.

tnom = 27
temp = 27
method = modified trap
totiter = 5070
traniter = 5046
tranpoints = 2045
accept = 1755
rejected = 290
matrix size = 16
fillins = 5
solver = Normal
Matrix Compiler1: 970 bytes object code size  0.1/0.1/[0.1]
Matrix Compiler2: off  [0.1]/0.1/0.1

