Circuit: * C:\IMR_Projects\IMR\Arb_Power_Booster\Simulate\IDK.asc

Direct Newton iteration for .op point succeeded.

Date: Fri Mar 21 06:05:27 2025
Total elapsed time: 0.218 seconds.

tnom = 27
temp = 27
method = modified trap
totiter = 2095
traniter = 2088
tranpoints = 1045
accept = 1045
rejected = 0
matrix size = 18
fillins = 21
solver = Normal
Matrix Compiler1: 2.46 KB object code size  0.3/0.2/[0.1]
Matrix Compiler2: 1.80 KB object code size  0.1/0.2/[0.1]

