Circuit: * C:\IMR_Projects\IMR\Arb_Power_Booster\Simulate\JJJ.asc

Direct Newton iteration for .op point succeeded.

Date: Sat Mar 15 08:20:00 2025
Total elapsed time: 0.174 seconds.

tnom = 27
temp = 27
method = modified trap
totiter = 2109
traniter = 2098
tranpoints = 1050
accept = 1050
rejected = 0
matrix size = 50
fillins = 12
solver = Normal
Matrix Compiler1: 3.61 KB object code size  0.5/0.3/[0.2]
Matrix Compiler2: 4.14 KB object code size  0.2/0.4/[0.2]

