Missing ".ends" statement in file "MMSZ5239BS.MOD"
Circuit: * C:\IMR_Projects\IMR\Arb_Power_Booster\Simulate\Signal_SSR_Switched.asc

WARNING: Less than two connections to node NC_01.  This node is used by D4.
Direct Newton iteration for .op point succeeded.

Date: Fri Feb 28 05:20:44 2025
Total elapsed time: 0.189 seconds.

tnom = 27
temp = 27
method = modified trap
totiter = 2126
traniter = 2096
tranpoints = 1049
accept = 1049
rejected = 0
matrix size = 28
fillins = 11
solver = Normal
Matrix Compiler1: 1.89 KB object code size  0.3/0.2/[0.1]
Matrix Compiler2: off  [0.2]/0.3/0.3

