Circuit: * C:\IMR_Projects\IMR\Arb_Power_Booster\Simulate\Test_1.asc


Direct Newton iteration failed to find .op point.  (Use ".option noopiter" to skip.)
Starting Gmin stepping
Gmin = 10
Gmin = 1.07374
Gmin = 0.115292
Gmin = 0.0123794
Gmin = 0.00132923
Gmin = 0.000142725
Gmin = 1.5325e-005
Gmin = 1.6455e-006
vernier = 0.5
vernier = 0.666667
Gmin = 5.00922e-007
vernier = 0.888888
Gmin = 8.49738e-008
vernier = 1
Gmin = 9.33136e-009
Gmin = 1.00195e-009
Gmin = 1.07583e-010
Gmin = 1.15517e-011
Gmin = 1.24035e-012
Gmin = 1.33182e-013
Gmin = 0
Gmin stepping succeeded in finding the operating point.


Date: Sat Jan 11 10:56:47 2025
Total elapsed time: 0.133 seconds.

tnom = 27
temp = 27
method = modified trap
totiter = 5950
traniter = 5446
tranpoints = 2021
accept = 1696
rejected = 325
matrix size = 47
fillins = 52
solver = Normal
Thread vector: 4.5/3.8[2] 1.5/1.2[2] 0.8/0.7[2] 0.2/0.6[1]  2592/500
Matrix Compiler1: 7.54 KB object code size  1.1/0.5/[0.3]
Matrix Compiler2: 5.54 KB object code size  0.5/0.5/[0.3]

