Circuit: * C:\IMR_Projects\IMR\Arb_Power_Booster\Simulate\Test_2.asc

WARNING: Less than two connections to node NC_01.  This node is used by V4.
Direct Newton iteration failed to find .op point.  (Use ".option noopiter" to skip.)
Starting Gmin stepping
Gmin = 10
Gmin = 1.07374
Gmin = 0.115292
Gmin = 0.0123794
Gmin = 0.00132923
Gmin = 0.000142725
Gmin = 1.5325e-005
Gmin = 1.6455e-006
Gmin = 1.76685e-007
Gmin = 1.89714e-008
Gmin = 2.03704e-009
Gmin = 2.18725e-010
Gmin = 2.34854e-011
Gmin = 2.52173e-012
Gmin = 2.70769e-013
Gmin = 0
Gmin stepping succeeded in finding the operating point.


Date: Mon Jan 20 07:19:22 2025
Total elapsed time: 0.156 seconds.

tnom = 27
temp = 27
method = modified trap
totiter = 4152
traniter = 3733
tranpoints = 1553
accept = 1371
rejected = 182
matrix size = 45
fillins = 58
solver = Normal
Matrix Compiler1: 6.58 KB object code size  1.1/0.6/[0.3]
Matrix Compiler2: 5.24 KB object code size  0.4/0.5/[0.4]

