Missing ".ends" statement in file "BZT52C2V0S.MOD"
Circuit: * C:\IMR_Projects\IMR\Arb_Power_Booster\Simulate\Voltage_Monitor.asc

Direct Newton iteration failed to find .op point.  (Use ".option noopiter" to skip.)
Starting Gmin stepping
Increasing initial diagonal Gmin to 100
Gmin = 100
Gmin = 10.7374
Gmin = 1.15292
vernier = 0.5
vernier = 0.666667
Gmin = 0.4029
vernier = 0.888888
vernier = 1
Gmin = 0.06089
Gmin = 0.00653801
Gmin = 0.000702013
vernier = 0.5
vernier = 0.25
vernier = 0.125
vernier = 0.0625
Gmin = 0.000544592
vernier = 0.03125
vernier = 0.015625
vernier = 0.0078125
Gmin = 0.000532047
vernier = 0.00390625
vernier = 0.00195313
vernier = 0.000976563
Gmin = 0.000532046
vernier = 0.00130208
vernier = 0.00173611
Gmin = 0.000530188
vernier = 0.00231481
vernier = 0.00308642
Gmin = 0.000527257
vernier = 0.00411522
Gmin = 0.000522534
vernier = 0.00548696
vernier = 0.00731595
Gmin = 0.000514891
vernier = 0.00975459
vernier = 0.0130061
Gmin = 0.000503011
vernier = 0.0173415
Gmin = 0.000484323
vernier = 0.023122
vernier = 0.0308293
Gmin = 0.000455233
vernier = 0.0411057
vernier = 0.0548076
Gmin = 0.000412742
vernier = 0.0730768
Gmin = 0.00035222
vernier = 0.0974357
vernier = 0.0487178
vernier = 0.0243589
Gmin = 0.00031601
vernier = 0.0121795
vernier = 0.00608973
vernier = 0.00304487
vernier = 0.00152243
vernier = 0.000761216
Gmin = 0.000315051
vernier = 0.000570912
vernier = 0.000428184
Gmin = 0
Gmin stepping failed

Starting source stepping with srcstepmethod=0
Source Step = 3.0303%
vernier = 0.25
Source Step = 7.57576%
Source Step = 15.1515%
Source Step = 22.7273%
Source Step = 30.303%
Source Step = 37.8788%
vernier = 0.375
Source Step = 48.8636%
Source Step = 60.2273%
Source Step = 71.5909%
Source Step = 76.7045%
Source Step = 78.1339%
Starting source stepping with srcstepmethod=1
Source Step = 3.0303%
Source Step = 33.3333%
Source Step = 63.6364%
Source Step = 93.9394%
Source Step = 100%
Source Step = 100%
Source Step = 100%
Source Step = 100%
Source stepping succeeded in finding the operating point.


Date: Mon Feb 17 06:06:11 2025
Total elapsed time: 0.674 seconds.

tnom = 27
temp = 27
method = modified trap
totiter = 8258
traniter = 2082
tranpoints = 1042
accept = 1042
rejected = 0
matrix size = 147
fillins = 201
solver = Normal
Thread vector: 5.1/3.2[3] 1.2/1.2[1] 3.4/0.9[3] 0.4/0.9[1]  2592/500
Matrix Compiler1: 19.13 KB object code size  2.6/1.2/[0.6]
Matrix Compiler2: 15.47 KB object code size  1.0/1.4/[0.5]

